Version 4.1
SHEET 1 2704 680
WIRE 464 -288 464 -336
WIRE 464 -176 464 -208
WIRE 464 -176 -352 -176
WIRE 464 -160 464 -176
WIRE -352 -96 -352 -176
WIRE -352 -96 -496 -96
WIRE -496 -48 -496 -96
WIRE 464 -32 464 -80
WIRE 528 -32 464 -32
WIRE 640 -32 592 -32
WIRE 464 0 464 -32
WIRE -352 16 -352 -96
WIRE 640 16 640 -32
WIRE -496 48 -496 16
WIRE 48 64 -96 64
WIRE 96 64 48 64
WIRE 208 64 160 64
WIRE 336 64 208 64
WIRE 416 64 336 64
WIRE -96 128 -96 64
WIRE 640 128 640 96
WIRE -352 144 -352 96
WIRE 336 144 336 64
WIRE 48 160 48 64
WIRE 208 192 208 64
WIRE -352 240 -352 224
WIRE -96 240 -96 192
WIRE -96 240 -352 240
WIRE 336 240 336 208
WIRE 464 240 464 96
WIRE 464 240 336 240
WIRE -352 256 -352 240
WIRE -96 272 -96 240
WIRE 336 272 336 240
WIRE 464 272 464 240
WIRE 48 304 48 240
WIRE -352 368 -352 336
WIRE -96 400 -96 336
WIRE 48 400 48 384
WIRE 48 400 -96 400
WIRE 208 400 208 272
WIRE 208 400 48 400
WIRE 336 400 336 336
WIRE 336 400 208 400
WIRE 464 400 464 352
WIRE 464 400 336 400
WIRE 336 448 336 400
WIRE -352 464 -352 448
FLAG 336 448 0
FLAG 464 -336 0
FLAG -352 464 0
FLAG 640 128 0
FLAG -496 48 0
SYMBOL cap 320 144 R0
SYMATTR InstName C2
SYMATTR Value 1n
SYMBOL cap 320 272 R0
SYMATTR InstName C3
SYMATTR Value 1n
SYMBOL res 448 256 R0
SYMATTR InstName R1
SYMATTR Value 560
SYMBOL Misc\\battery 464 -192 R180
WINDOW 0 24 104 Left 2
WINDOW 3 24 16 Left 2
SYMATTR InstName V1
SYMATTR Value 9V
SYMBOL ind2 64 256 R180
WINDOW 0 36 80 Left 2
WINDOW 3 36 40 Left 2
SYMATTR InstName L1
SYMATTR Value 180µ
SYMATTR SpiceLine Rser=9
SYMBOL ind2 64 400 R180
WINDOW 0 36 80 Left 2
WINDOW 3 36 40 Left 2
SYMATTR InstName L2
SYMATTR Value 170µ
SYMATTR SpiceLine Rser=9
SYMBOL njf 416 0 R0
SYMATTR InstName J2
SYMATTR Value BF245A
SYMBOL res 192 176 R0
SYMATTR InstName R2
SYMATTR Value 1Meg
SYMBOL res 448 -176 R0
SYMATTR InstName R3
SYMATTR Value 5.7k
SYMBOL cap 96 80 R270
WINDOW 0 32 32 VTop 2
WINDOW 3 0 32 VBottom 2
SYMATTR InstName C1
SYMATTR Value 1n
SYMBOL diode -112 128 R0
WINDOW 0 -32 11 Left 2
WINDOW 3 -87 57 Left 2
SYMATTR InstName D1
SYMATTR Value BB835
SYMATTR Type diode
SYMBOL diode -80 336 R180
WINDOW 0 24 64 Left 2
WINDOW 3 24 0 Left 2
SYMATTR InstName D2
SYMATTR Value BB835
SYMATTR Type diode
SYMBOL res -368 352 R0
SYMATTR InstName R4
SYMATTR Value 22k
SYMBOL res -368 0 R0
SYMATTR InstName R5
SYMATTR Value 22k
SYMBOL res -368 240 R0
SYMATTR InstName R7
SYMATTR Value 100k
SYMBOL res -368 128 R0
SYMATTR InstName R6
SYMATTR Value 100k
SYMBOL cap 528 -16 R270
WINDOW 0 32 32 VTop 2
WINDOW 3 0 32 VBottom 2
SYMATTR InstName C4
SYMATTR Value 1n
SYMBOL res 624 0 R0
SYMATTR InstName R8
SYMATTR Value 10k
SYMBOL cap -512 -48 R0
SYMATTR InstName C5
SYMATTR Value 1µ
TEXT 24 528 Left 2 !.tran 0 20.05m 20m startup
TEXT 24 560 Left 2 !.model BF245A NJF(VTO=-1.7372 BETA=1.16621m BETATCE=-0.5 LAMBDA=1.77211E-2 RD=9.01678 RS=9.01678 CGS=2.20000p CGD=2.20000p PB=7.80988E-1 IS=2.91797E-16 XTI=3 AF=1 FC=0.5 N=1 NR=2 MFG=PHILIPS)
TEXT -520 224 Left 2 ;200k\nLIN POT.
TEXT 48 608 Left 2 !.MODEL BB835 D(IS=115.11f RS=0.07705 N=1.22 XTI=1 EG=1.11 CJo=13.9P M=1.407 Vj=2.85 FC=0.5 BV=30 IBV=5u TT=80N)
RECTANGLE Normal -272 128 -416 352 2
